24

N .66 -.66 -.33
N -.66 .66 .33
N .66 .33 .66
N -.66 -.33 -.66
N -.33 -.66 .66
N .33 .66 -.66
N -.66 .66 -.33
N .66 -.66 .33
N -.66 -.33 .66
N .66 .33 -.66
N .33 .66 .66
N -.33 -.66 -.66
N .66 .66 -.33
N -.66 -.66 .33
N -.33 .66 .66
N .33 -.66 -.66
N .66 -.33 .66
N -.66 .33 -.66
N  -.66 -.66 -.33
N .66 .66 .33
N .33 -.66 .66
N -.33 .66 -.66
N -.66 .33 .66
N .66 -.33 -.66
