297

N -0.68 0.24 -0.69
N 0.71 0.25 0.67
N -0.70 0.25 0.67
N 0.67 0.25 -0.70
N 0.67 0.26 0.70
N -0.70 0.26 -0.67
N 0.72 0.26 0.64
N 0.70 0.26 -0.66
N -0.67 0.27 0.69
N 0.63 0.27 0.73
N 0.64 0.27 -0.72
N -0.66 0.27 -0.70
N 0.69 0.27 0.67
N 0.73 0.27 -0.62
N -0.71 0.28 -0.64
N -0.70 0.28 0.65
N 0.68 0.28 -0.68
N -0.62 0.28 -0.73
N -0.65 0.28 0.71
N 0.65 0.29 0.71
N 0.62 0.29 -0.73
N -0.68 0.29 -0.68
N -0.73 0.29 0.61
N 0.70 0.29 0.65
N 0.71 0.29 -0.64
N -0.73 0.30 -0.62
N -0.68 0.30 0.67
N 0.61 0.30 0.74
N 0.65 0.30 -0.70
N -0.64 0.30 -0.71
N -0.62 0.30 0.72
N 0.67 0.30 0.68
N 0.74 0.30 -0.60
N -0.69 0.31 -0.65
N -0.71 0.31 0.63
N 0.72 0.31 0.62
N 0.68 0.31 -0.66
N -0.60 0.31 -0.74
N -0.65 0.31 0.69
N 0.63 0.31 0.71
N 0.62 0.32 -0.71
N -0.66 0.32 -0.68
N 0.68 0.32 0.66
N 0.71 0.32 -0.62
N -0.71 0.32 -0.63
N -0.69 0.32 0.65
N 0.73 0.33 0.59
N 0.66 0.33 -0.68
N -0.62 0.33 -0.71
N -0.63 0.33 0.70
N 0.65 0.33 0.69
N 0.60 0.33 -0.73
N -0.67 0.34 -0.66
N -0.71 0.34 0.61
N 0.70 0.34 0.63
N 0.69 0.34 -0.64
N -0.72 0.34 -0.60
N -0.66 0.34 0.67
N 0.61 0.34 0.72
N 0.63 0.35 -0.69
N -0.64 0.35 -0.69
N -0.60 0.35 0.72
N 0.66 0.35 0.66
N 0.72 0.35 -0.60
N -0.69 0.35 -0.63
N -0.69 0.35 0.63
N 0.71 0.36 0.60
N 0.66 0.36 -0.66
N -0.60 0.36 -0.72
N -0.63 0.36 0.68
N 0.63 0.36 0.69
N 0.60 0.36 -0.71
N -0.65 0.36 -0.66
N -0.72 0.36 0.59
N 0.68 0.37 0.64
N 0.69 0.37 -0.62
N -0.70 0.37 -0.61
N -0.66 0.37 0.65
N 0.64 0.37 -0.67
N -0.62 0.37 -0.69
N -0.61 0.38 0.70
N 0.64 0.38 0.67
N -0.67 0.38 -0.64
N -0.69 0.38 0.61
N 0.69 0.39 0.61
N 0.67 0.39 -0.64
N -0.64 0.39 0.66
N 0.61 0.39 0.69
N 0.61 0.39 -0.69
N -0.63 0.39 -0.67
N 0.66 0.40 0.64
N 0.70 0.40 -0.60
N -0.68 0.40 -0.61
N -0.67 0.40 0.63
N 0.64 0.40 -0.65
N -0.61 0.41 0.68
N 0.62 0.41 0.67
N -0.65 0.41 -0.64
N 0.67 0.41 0.61
N 0.67 0.41 -0.62
N -0.64 0.42 0.64
N 0.64 0.42 0.64
N 0.71 0.59 -0.38
N 0.35 0.60 0.72
N -0.36 0.60 0.72
N -0.38 0.60 -0.71
N 0.33 0.60 -0.73
N -0.70 0.60 -0.40
N 0.40 0.60 0.69
N 0.72 0.60 -0.34
N 0.71 0.60 0.36
N -0.70 0.61 0.37
N 0.31 0.61 0.73
N -0.72 0.61 -0.33
N -0.40 0.61 0.69
N 0.69 0.61 -0.40
N -0.34 0.61 -0.72
N 0.73 0.61 0.30
N 0.37 0.61 -0.70
N 0.36 0.61 0.70
N 0.73 0.61 -0.30
N -0.34 0.61 0.71
N 0.68 0.61 0.40
N -0.39 0.62 -0.68
N -0.71 0.62 0.33
N 0.30 0.62 -0.73
N -0.70 0.62 -0.37
N 0.42 0.62 0.66
N 0.70 0.62 -0.36
N -0.29 0.62 -0.73
N 0.71 0.62 0.34
N 0.40 0.62 -0.68
N -0.68 0.62 0.38
N 0.32 0.62 0.71
N -0.72 0.62 -0.31
N -0.37 0.62 0.69
N 0.66 0.63 -0.41
N -0.35 0.63 -0.69
N 0.73 0.63 0.27
N -0.72 0.63 0.29
N 0.34 0.63 -0.70
N -0.67 0.63 -0.40
N 0.38 0.63 0.68
N 0.71 0.63 -0.32
N -0.31 0.63 0.71
N 0.68 0.63 0.37
N -0.40 0.63 -0.66
N -0.69 0.63 0.35
N 0.28 0.63 -0.72
N 0.28 0.63 0.72
N -0.69 0.64 -0.34
N -0.40 0.64 0.66
N 0.67 0.64 -0.37
N -0.31 0.64 -0.70
N 0.71 0.64 0.31
N 0.37 0.64 -0.68
N -0.66 0.64 0.40
N 0.34 0.64 0.69
N -0.71 0.64 -0.28
N 0.71 0.64 -0.28
N -0.34 0.64 0.69
N 0.65 0.64 0.40
N 0.64 0.64 -0.42
N -0.37 0.65 -0.67
N -0.70 0.65 0.31
N 0.31 0.65 -0.70
N -0.67 0.65 -0.37
N 0.39 0.65 0.65
N 0.68 0.65 -0.33
N -0.28 0.65 0.71
N -0.27 0.65 -0.71
N 0.68 0.65 0.34
N 0.40 0.65 -0.65
N -0.42 0.65 -0.63
N -0.67 0.65 0.36
N 0.25 0.65 -0.72
N 0.30 0.65 0.70
N -0.69 0.65 -0.31
N -0.37 0.65 0.66
N 0.65 0.66 -0.39
N -0.33 0.66 -0.68
N 0.70 0.66 0.28
N -0.71 0.66 0.27
N 0.34 0.66 -0.67
N -0.64 0.66 -0.40
N -0.63 0.66 0.41
N 0.35 0.66 0.66
N -0.71 0.66 -0.25
N 0.69 0.66 -0.29
N -0.31 0.66 0.68
N 0.65 0.66 0.37
N -0.38 0.66 -0.65
N -0.68 0.66 0.32
N 0.28 0.66 -0.69
N 0.26 0.66 0.70
N -0.67 0.66 -0.34
N -0.40 0.66 0.63
N 0.40 0.67 0.63
N 0.66 0.67 -0.35
N -0.25 0.67 0.70
N -0.29 0.67 -0.69
N 0.68 0.67 0.31
N 0.37 0.67 -0.65
N -0.64 0.67 0.37
N 0.32 0.67 0.67
N -0.69 0.67 -0.28
N 0.70 0.67 -0.26
N -0.34 0.67 0.66
N 0.63 0.67 0.40
N 0.62 0.67 -0.40
N -0.34 0.67 -0.66
N 0.69 0.67 0.25
N -0.68 0.67 0.28
N 0.31 0.67 -0.67
N -0.64 0.67 -0.37
N 0.37 0.68 0.64
N 0.67 0.68 -0.31
N -0.28 0.68 0.68
N -0.25 0.68 -0.69
N 0.65 0.68 0.34
N 0.40 0.68 -0.62
N -0.39 0.68 -0.62
N -0.65 0.68 0.34
N 0.25 0.68 -0.69
N 0.28 0.68 0.68
N -0.66 0.68 -0.31
N -0.37 0.68 0.63
N 0.63 0.68 -0.36
N -0.30 0.68 -0.66
N 0.67 0.69 0.28
N -0.69 0.69 0.24
N 0.34 0.69 -0.64
N -0.61 0.69 -0.40
N -0.62 0.69 0.38
N 0.33 0.69 0.65
N -0.68 0.69 -0.25
N 0.67 0.69 -0.27
N -0.31 0.69 0.65
N 0.62 0.69 0.37
N -0.35 0.69 -0.63
N -0.66 0.69 0.30
N 0.28 0.69 -0.66
N 0.24 0.69 0.68
N -0.64 0.69 -0.34
N -0.39 0.69 0.60
N 0.38 0.70 0.61
N 0.64 0.70 -0.32
N -0.26 0.70 0.67
N -0.27 0.70 -0.67
N 0.65 0.70 0.31
N 0.37 0.70 -0.62
N -0.63 0.70 0.35
N 0.29 0.70 0.65
N -0.66 0.70 -0.28
N -0.34 0.70 0.63
N 0.60 0.70 0.39
N 0.61 0.70 -0.37
N -0.32 0.70 -0.64
N 0.66 0.70 0.26
N -0.66 0.70 0.26
N 0.31 0.70 -0.64
N -0.61 0.70 -0.37
N 0.34 0.71 0.62
N 0.65 0.71 -0.29
N -0.28 0.71 0.65
N 0.62 0.71 0.34
N -0.36 0.71 -0.60
N -0.63 0.71 0.31
N 0.26 0.71 -0.66
N 0.25 0.71 0.66
N -0.63 0.71 -0.31
N -0.37 0.71 0.60
N 0.62 0.71 -0.33
N -0.28 0.71 -0.64
N 0.64 0.71 0.29
N 0.34 0.71 -0.61
N -0.60 0.72 0.36
N 0.30 0.72 0.63
N -0.65 0.72 -0.26
N -0.31 0.72 0.62
N 0.59 0.72 0.37
N -0.33 0.72 -0.61
N -0.64 0.72 0.27
N 0.29 0.72 -0.63
N -0.60 0.72 -0.34
N 0.35 0.72 0.59
N 0.62 0.72 -0.30
N -0.26 0.72 0.64
N 0.61 0.72 0.31
N -0.61 0.73 0.32
N 0.27 0.73 0.63
N -0.62 0.73 -0.29
N -0.34 0.73 0.60
N -0.29 0.73 -0.62
N 0.31 0.73 -0.61
N 0.31 0.73 0.60
N -0.28 0.74 0.61
